Circuit: * C:\Users\hp\Desktop\LTspice files\LTspice-XVII\Diode Problems\problem_3_52\Draft1.asc


Date: Thu Sep 26 16:04:01 2019
Total elapsed time: 0.102 seconds.

tnom = 27
temp = 27
method = trap
totiter = 812
traniter = 0
tranpoints = 0
accept = 0
rejected = 0
matrix size = 9
fillins = 0
solver = Normal
Matrix Compiler1:      17 opcodes  0.1/[0.1]/0.1
Matrix Compiler2: 613 bytes object code size  0.1/0.3/[0.1]

